/*--------------------------------*- C++ -*----------------------------------*\
  =========                 |				
  \\      /  F ield         | OpenFOAM: The Open Source CFD Toolbox
   \\    /   O peration     | Website:  https://openfoam.org
    \\  /    A nd           | Version:  9                                   	
     \\/     M anipulation  |
\*---------------------------------------------------------------------------*/
FoamFile
{
    format      ascii;
    class       dictionary;
    object      extrudeMeshDict;
}
// * * * * * * * * * * * * * * * * * * * * * * * * * * * * * * * * * * * * * //

constructFrom patch;

sourceCase ".";
sourcePatches (back);

// If construct from patch: patch to use for back (can be same as sourcePatch)
exposedPatchName front;

// Flip surface normals before usage. Valid only for extrude from surface or
// patch.
flipNormals false;

//- Linear extrusion in point-normal direction
extrudeModel        linearNormal;

nLayers             1;

linearNormalCoeffs
{
    thickness       1;
}

// Do front and back need to be merged? Usually only makes sense for 360
// degree wedges.
mergeFaces false;   //true;

// Merge small edges. Fraction of bounding box.
mergeTol 0;

// * * * * * * * * * * * * * * * * * * * * * * * * * * * * * * * * * * * * * //
