/*--------------------------------*- C++ -*----------------------------------*\
  =========                 |				
  \\      /  F ield         | OpenFOAM: The Open Source CFD Toolbox
   \\    /   O peration     | Website:  https://openfoam.org
    \\  /    A nd           | Version:  9                                   	
     \\/     M anipulation  |
\*---------------------------------------------------------------------------*/
FoamFile
{
    format      ascii;
    class       extendedFeatureEdgeMesh;
    object      geo.extendedFeatureEdgeMesh;
}
// * * * * * * * * * * * * * * * * * * * * * * * * * * * * * * * * * * * * * //

// points
10((0 0 0) (-1.110219981e-16 1.5 0) (0.5 0 0) (1.5 1.5 0) (1.5 0.3639700115 0) (1.5 0.3639700115 1) (1.5 1.5 1) (0.5 0 1) (-1.110219981e-16 1.5 1) (0 0 1))
// edges

15
(
(2 0)
(0 1)
(1 3)
(3 4)
(4 2)
(5 6)
(7 5)
(6 8)
(9 7)
(8 9)
(3 6)
(5 4)
(1 8)
(2 7)
(9 0)
)

// concaveStart mixedStart nonFeatureStart
10 10 10
// internalStart flatStart openStart multipleStart
15 15 15 15
// normals

16
(
(0 0 -1)
(0 -1 0)
(-1 -7.401466537e-17 -0)
(0 0 -1)
(0 1 0)
(0 0 -1)
(1 0 0)
(0.3420199585 -0.9396926881 0)
(0 -0 1)
(1 0 0)
(0.3420199585 -0.9396926881 0)
(0 0 1)
(-0 1 0)
(0 0 1)
(-0 -1 -0)
(-1 -7.401466537e-17 -0)
)

// normal volume types

16
(
0
0
0
0
0
0
0
0
0
0
0
0
0
0
0
0
)

// normalDirections

15
(
2(1 -1)
2(1 -1)
2(1 -1)
2(1 -1)
2(1 -1)
2(1 -1)
2(1 -1)
2(1 -1)
2(1 -1)
2(1 -1)
2(1 -1)
2(1 -1)
2(1 -1)
2(1 -1)
2(1 -1)
)

// edgeNormals

15
(
2(0 1)
2(0 2)
2(3 4)
2(5 6)
2(5 7)
2(8 9)
2(8 10)
2(11 12)
2(13 14)
2(13 15)
2(9 4)
2(6 10)
2(12 2)
2(14 7)
2(1 15)
)

// featurePointNormals

10
(
3(0 1 2)
3(0 2 4)
3(0 1 7)
3(3 4 6)
3(5 6 7)
3(8 9 10)
3(8 9 12)
3(8 10 14)
3(11 12 15)
3(13 14 15)
)

// featurePointEdges

10
(
3(0 14 1)
3(2 12 1)
3(4 13 0)
3(3 10 2)
3(3 11 4)
3(5 11 6)
3(7 10 5)
3(8 13 6)
3(9 12 7)
3(8 14 9)
)

// regionEdges
0()

// ************************************************************************* //
